Circuit: * C:\Documents and Settings\qermit\Moje dokumenty\MOZA-PROJ1\schemat_postoptim.asc

Number of points per decade reduced from 20000000 to 5175.
Direct Newton iteration for .op point succeeded.

Date: Sat Dec 21 23:44:09 2013
Total elapsed time: 2.470 seconds.

tnom = 27
temp = 27
method = trap
totiter = 10
traniter = 0
tranpoints = 0
accept = 0
rejected = 0
matrix size = 18
fillins = 8
solver = Normal
Matrix Compiler1:      86 opcodes
Matrix Compiler2: 1,59 KB object code size

